test/test_data/exported_modified_case14_sys 1.raw
0, 100.0, 33, 0, 1, 60.0    / PSS/E 33.3 RAW via PowerFlows.jl, 2025-05-29T16:23:24.845
exported_modified_case14_sys
PSS/E 33.3 RAW via PowerFlows.jl, 2025-05-29T16:23:24.845
101, 'BUS 101', 138.0, 3, 1, 1, , 1.0, 0.0, 1.1, 0.9, , 
102, 'BUS 102', 138.0, 1, 1, 1, , 0.99896, -0.306, 1.1, 0.9, , 
103, 'BUS 103', 138.0, 1, 1, 1, , 1.00307, -1.7958000000000003, 1.1, 0.9, , 
104, 'BUS 104', 138.0, 1, 1, 1, , 0.99365, -2.8783, 1.1, 0.9, , 
105, 'BUS 105', 138.0, 1, 1, 1, , 0.99365, -2.8783, 1.1, 0.9, , 
106, 'BUS 106', 230.0, 1, 1, 1, , 0.99394, -2.909, 1.1, 0.9, , 
107, 'BUS 107', 65.0, 1, 1, 1, , 0.99476, -2.8576, 1.1, 0.9, , 
108, 'BUS 108', 65.0, 3, 1, 1, , 1.0, 11.7593, 1.1, 0.9, , 
109, 'BUS 109', 500.0, 1, 1, 1, , 0.99627, -2.9203, 1.1, 0.9, , 
110, 'BUS 110', 230.0, 2, 1, 1, , 1.0, -2.9926, 1.1, 0.9, , 
111, 'BUS 111', 230.0, 1, 1, 1, , 0.98996, -3.0408, 1.1, 0.9, , 
112, 'BUS 112', 230.0, 1, 1, 1, , 0.99941, -3.0972, 1.1, 0.9, , 
113, 'BUS 113', 230.0, 1, 1, 1, , 0.99941, -3.0972, 1.1, 0.9, , 
114, 'BUS 114', 500.0, 1, 1, 1, , 0.99959, -3.1078, 1.1, 0.9, , 
200, 'BUS 200', 500.0, 1, 1, 1, , 0.99965, -3.0851, 1.1, 0.9, , 
201, 'BUS 201', 500.0, 1, 1, 1, , 0.9992, -3.1048, 1.1, 0.9, , 
301, 'BUS 301', 500.0, 1, 1, 1, , 0.99912, -3.1502, 1.1, 0.9, , 
401, 'BUS 401', 500.0, 1, 1, 1, , 0.99889, -2.9786, 1.1, 0.9, , 
501, 'BUS 501', 500.0, 1, 1, 1, , 0.99894, -3.0975, 1.1, 0.9, , 
601, 'BUS 601', 500.0, 1, 1, 1, , 0.99662, -2.9299, 1.1, 0.9, , 
1001, 'starbus_109_', 1.0, 1, 1, 1, , 0.99489, -2.8854, 1.1, 0.9, , 
1002, 'starbus_113_', 1.0, 1, 1, 1, , 0.99967, -3.0658, 1.1, 0.9, , 
0 / End of Bus Data, Begin Load Data
101, '1', 1, , , 200.0, 500.0, 0.0, 0.0, 0.0, 0.0, , , 
102, '1', 1, , , 200.0, -350.0, 20.0, 0.0, 0.0, 0.0, , , 
103, '1', 1, , , 105.0, 65.0, 0.0, 0.0, 0.0, 0.0, , , 
104, '1', 1, , , 500.0, 180.0, 0.0, 0.0, 0.0, 0.0, , , 
105, '1', 1, , , 500.0, -350.0, 0.0, 0.0, 0.0, 0.0, , , 
106, '1', 1, , , 80.0, 20.0, 0.0, 0.0, 0.0, 0.0, , , 
109, '1', 1, , , 300.0, 100.0, 0.0, 0.0, 0.0, 0.0, , , 
110, '01', 1, , , 100.0, -500.0, 0.0, 0.0, 0.0, 0.0, , , 
110, '02', 1, , , 150.0, -500.0, 0.0, 0.0, 0.0, 0.0, , , 
111, '1', 1, , , 250.0, 100.0, 0.0, 0.0, 0.0, 0.0, , , 
112, '1', 1, , , 325.0, 23.0, 0.0, 0.0, 0.0, 0.0, , , 
113, '1', 1, , , 250.0, 100.0, 0.0, 0.0, 0.0, 0.0, , , 
114, '1', 1, , , 500.0, -250.0, 0.0, 0.0, 0.0, 0.0, , , 
0 / End of Load Data, Begin Fixed Shunt Data
102, '1', 1, 50.0, -300.0
106, '1', 1, 80.0, 30.0
110, '1', 1, 20.0, 400.0
111, '1', 1, 100.0, 200.0
101, '1', 1, 0.0, 50.0
113, '1', 1, 0.0, 10.0
0 / End of Fixed Shunt Data, Begin Generator Data
101, '1', 2088.166, -2446.8, 9999.0, -9999.0, 1.0, , 100.0, , , , , , 1, , 9999.0, -9999.0, , , , , , , , , , 
101, '2', 1089.478, -1276.591, 9999.0, -9999.0, 1.0, , 100.0, , , , , , 1, , 9999.0, -9999.0, , , , , , , , , , 
102, '1', 300.0, -50.0, 9999.0, -9999.0, 0.99896, , 100.0, , , , , , 1, , 9999.0, -9999.0, , , , , , , , , , 
106, '1', 200.0, -50.0, 9999.0, -9999.0, 0.99394, , 100.0, , , , , , 1, , 9999.0, -9999.0, , , , , , , , , , 
108, '1', 500.274, -4.997, 9999.0, -9999.0, 1.0, , 100.0, , , , , , 1, , 9999.0, -9999.0, , , , , , , , , , 
110, '1', 300.0, 2708.621, 9999.0, -9999.0, 1.0, , 100.0, , , , , , 1, , 9999.0, -9999.0, , , , , , , , , , 
111, '1', 90.0, 784.759, 9999.0, -9999.0, 0.98996, , 100.0, , , , , , 1, , 9999.0, -9999.0, , , , , , , , , , 
0 / End of Generator Data, Begin Non-Transformer Branch Data
101, 102, '_1', 0.000125, 0.0001, 0.0, 755882.6105567585, 755882.6105567585, 755882.6105567585, 0.0, 0.0006, 0.0, 0.0006, 1, , , , , , , , , , 
101, 105, '_1', 0.0025, 0.0001, 0.0, 48361.428963218495, 48361.428963218495, 48361.428963218495, 0.0, 0.00115, 0.0, 0.00115, 1, , , , , , , , , , 
102, 103, '_1', 0.00128, 0.0081, 0.0, 14755.207231536653, 14755.207231536653, 14755.207231536653, 0.0, 0.00098, 0.0, 0.00098, 1, , , , , , , , , , 
102, 104, '_1', 0.0034, 0.0041, 0.0, 22717.29530084371, 22717.29530084371, 22717.29530084371, 0.0, 0.00013, 0.0, 0.00013, 1, , , , , , , , , , 
102, 105, '_1', 0.00188, 0.001104, 0.0, 55499.94032513398, 55499.94032513398, 55499.94032513398, 0.0, 0.001575, 0.0, 0.001575, 1, , , , , , , , , , 
103, 104, '_1', 0.00745, 0.00315, 0.0, 14959.408636384827, 14959.408636384827, 14959.408636384827, 0.0, 0.00171, 0.0, 0.00171, 1, , , , , , , , , , 
104, 105, '*1', -0.0, 0.0001, 0.0, 1.210002566077499e6, 1.210002566077499e6, 1.210002566077499e6, 0.0, 0.0, 0.0, 0.0, 1, , , , , , , , , , 
106, 111, '_2', 0.0125, 0.0081, 0.0, 8123.567379649153, 8123.567379649153, 8123.567379649153, 0.0, 0.002675, 0.0, 0.002675, 1, , , , , , , , , , 
106, 111, '_1', 0.00134, 0.0001345, 0.0, 89847.23824683383, 89847.23824683383, 89847.23824683383, 0.0, 0.00012, 0.0, 0.00012, 1, , , , , , , , , , 
106, 112, '_1', 0.001456, 0.0041, 0.0, 27810.68707969224, 27810.68707969224, 27810.68707969224, 0.0, 0.00367, 0.0, 0.00367, 1, , , , , , , , , , 
107, 108, '_1', 0.00798, 0.0501, 0.0, 2385.1084994058133, 2385.1084994058133, 2385.1084994058133, 0.0, 0.00028, 0.0, 0.00028, 1, , , , , , , , , , 
109, 401, '_1', 0.00123, 0.0071, 0.0, 16792.16994937519, 16792.16994937519, 16792.16994937519, 0.0, 0.0017, 0.0, 0.0017, 1, , , , , , , , , , 
109, 501, '_1', 0.0753, 0.0041, 0.0, 1604.5324162937216, 1604.5324162937216, 1604.5324162937216, 0.0, 0.00175, 0.0, 0.00175, 1, , , , , , , , , , 
109, 601, '_1', 0.00188, 0.0021, 0.0, 42929.4910726739, 42929.4910726739, 42929.4910726739, 0.0, 0.02817, 0.0, 0.02817, 1, , , , , , , , , , 
110, 111, '_1', 0.00356, 0.0241, 0.0, 4966.860129780371, 4966.860129780371, 4966.860129780371, 0.0, 0.00251, 0.0, 0.00251, 1, , , , , , , , , , 
112, 113, '@1', -0.0, 0.0001, 0.0, 1.210002566077499e6, 1.210002566077499e6, 1.210002566077499e6, 0.0, 0.0, 0.0, 0.0, 1, , , , , , , , , , 
114, 200, '_1', 0.00124, 0.0001, 0.0, 97265.07607563623, 97265.07607563623, 97265.07607563623, 0.0, 0.022, 0.0, 0.022, 1, , , , , , , , , , 
114, 201, '_1', 0.006443, 0.0051, 0.0, 14725.255592744421, 14725.255592744421, 14725.255592744421, 0.0, 0.001175, 0.0, 0.001175, 1, , , , , , , , , , 
114, 301, '_1', 0.0023, 0.0201, 0.0, 5980.88454692927, 5980.88454692927, 5980.88454692927, 0.0, 0.032, 0.0, 0.032, 1, , , , , , , , , , 
200, 401, '_1', 0.00453, 0.0031, 0.0, 22043.484147121977, 22043.484147121977, 22043.484147121977, 0.0, 0.0229, 0.0, 0.0229, 1, , , , , , , , , , 
201, 501, '_1', 0.005343, 0.00231, 0.0, 20786.940040991467, 20786.940040991467, 20786.940040991467, 0.0, 0.00278, 0.0, 0.00278, 1, , , , , , , , , , 
301, 601, '_1', 0.0523, 0.00601, 0.0, 2298.4544086538626, 2298.4544086538626, 2298.4544086538626, 0.0, 0.0267, 0.0, 0.0267, 1, , , , , , , , , , 
0 / End of Non-Transformer Branch Data, Begin Transformer Data
104, 1001, 0, '1', 1, 1, 1, , -0.0, , 'B104-1001_1', 1, , , , , , , , , 
0.0, 0.0001, 100.0
1.0, 0.0, 0.0, 1.210002566077499e6, 1.210002566077499e6, 1.210002566077499e6, , , , , , , , , , , 
1.0, 0.0
106, 105, 0, '_1', 1, 1, 1, , -0.0, , 'B106-105__1', 1, , , , , , , , , 
0.0, 0.0001, 100.0
1.0, 0.0, 0.0, 1.210002566077499e6, 1.210002566077499e6, 1.210002566077499e6, , , , , , , , , , , 
1.0, 0.0
107, 1001, 0, '1', 1, 1, 1, , -0.0, , 'B107-1001_1', 1, , , , , , , , , 
0.0, 0.0001, 100.0
1.0, 0.0, 0.0, 1.210002566077499e6, 1.210002566077499e6, 1.210002566077499e6, , , , , , , , , , , 
1.0, 0.0
109, 104, 0, '_1', 1, 1, 1, , -0.0, , 'B109-104__1', 1, , , , , , , , , 
0.0, 0.0001, 100.0
1.0, 0.0, 0.0, 1.210002566077499e6, 1.210002566077499e6, 1.210002566077499e6, , , , , , , , , , , 
1.0, 0.0
109, 1001, 0, '1', 1, 1, 1, , -0.0, , 'B109-1001_1', 1, , , , , , , , , 
0.0, 0.0001, 100.0
1.0, 0.0, 0.0, 1.210002566077499e6, 1.210002566077499e6, 1.210002566077499e6, , , , , , , , , , , 
1.0, 0.0
110, 109, 0, '_1', 1, 1, 1, , -0.0, , 'B110-109__1', 1, , , , , , , , , 
0.0, 0.0001, 100.0
1.0, 0.0, 0.0, 1.210002566077499e6, 1.210002566077499e6, 1.210002566077499e6, , , , , , , , , , , 
1.0, 0.0
110, 1002, 0, '1', 1, 1, 1, , -0.0, , 'B110-1002_1', 1, , , , , , , , , 
0.0, 0.0001, 100.0
1.0, 0.0, 0.0, 1.210002566077499e6, 1.210002566077499e6, 1.210002566077499e6, , , , , , , , , , , 
1.0, 0.0
113, 1002, 0, '1', 1, 1, 1, , -0.0, , 'B113-1002_1', 1, , , , , , , , , 
0.0, 0.0001, 100.0
1.0, 0.0, 0.0, 1.210002566077499e6, 1.210002566077499e6, 1.210002566077499e6, , , , , , , , , , , 
1.0, 0.0
114, 1002, 0, '1', 1, 1, 1, , -0.0, , 'B114-1002_1', 1, , , , , , , , , 
0.0, 0.0001, 100.0
1.0, 0.0, 0.0, 1.210002566077499e6, 1.210002566077499e6, 1.210002566077499e6, , , , , , , , , , , 
1.0, 0.0
0 / End of Transformer Data, Begin Area Interchange Data
0 / End of Area Interchange Data, Begin Two-Terminal DC Transmission Line Data
0 / End of Two-Terminal DC Transmission Line Data, Begin Voltage Source Converter (VSC) DC Transmission Line Data
0 / End of Voltage Source Converter (VSC) DC Transmission Line Data, Begin Transformer Impedance Correction Tables
0 / End of Transformer Impedance Correction Tables, Begin Multi-Terminal DC Transmission Line Data
0 / End of Multi-Terminal DC Transmission Line Data, Begin Multi-Section Line Grouping Data
0 / End of Multi-Section Line Grouping Data, Begin Zone Data
1, '1'
0 / End of Zone Data, Begin Interarea Transfer Data
0 / End of Interarea Transfer Data, Begin Owner Data
0 / End of Owner Data, Begin FACTS Device Data
0 / End of FACTS Device Data, Begin Switched Shunt Data
101,1,0,1,1.00000,1.00000,0,100.0,'',50.00,5,100.00
113,1,0,1,1.00000,1.00000,0,100.0,'',10.00,2,5.00
0 / End of Switched Shunt Data, Begin GNE Device Data
0 / End of GNE Device Data, Begin Induction Machine Data
0 / End of Induction Machine Data
Q
